src/examples/case14_twoarea/two_area_08pulim_2/results/res_branch_2.csv
branch,from_bus,to_bus,X,B,G,Bfr,Bto,p_from,p_to,q_from,q_to,p_loss,q_loss,s_from,s_to,rate_a,ang_deg,angmin,angmax
7,4,5,0.07018333333333335,-13.750861129582134,2.615635185180549,0.0,0.0,-0.5947375762450461,0.5992330478013521,-0.10167084249899395,0.125304339032832,0.00449547155630603,0.023633496533838047,0.6033653493632919,0.6121939422746295,0.8,-2.1098317758621032,-60.0001403060998,60.0001403060998
4,2,4,0.2938666666666667,-3.274849999726149,0.6475778135801491,0.028333333333333335,0.028333333333333335,0.43577330581655765,-0.4252816137058437,-0.0971367530355653,0.08906536739523103,0.010491692110713935,-0.008071385640334272,0.44646827754341456,0.43450787176470573,0.8,7.024964054201296,-60.0001403060998,60.0001403060998
2,1,5,0.37173333333333336,-2.634446441553089,0.3829065851070123,0.041,0.041,0.4631136937682008,-0.4527868980165871,-0.06280824840320393,0.042158493416196166,0.01032679575161366,-0.02064975498700776,0.46735336676128203,0.4547453282691387,0.8,8.902635602141412,-60.0001403060998,60.0001403060998
3,2,3,0.32995,-2.9705137433791546,0.423047252012082,0.0365,0.0365,0.6260689295138404,-0.6088404670334584,0.012508258885537934,0.03179791475965778,0.017228462480382012,0.044306173645195714,0.6261938685766204,0.6096702565162436,0.8,11.21164784914623,-60.0001403060998,60.0001403060998
5,2,5,0.28980000000000006,-3.32235273589815,0.6528916090731525,0.028833333333333336,0.028833333333333336,0.3023487767618021,-0.2968934902757308,-0.13916768880549518,0.10380155665043601,0.005455286486071298,-0.03536613215505917,0.33283994414255813,0.3145163075758698,0.8,4.915132278339192,-60.0001403060998,60.0001403060998
6,3,4,0.28505,-3.324436966625986,0.7815138436541214,0.010666666666666668,0.010666666666666668,-0.27515952296741136,0.28015177321616,-0.03504349991580682,0.033824400101028156,0.004992250248748664,-0.0012190998147786625,0.2773820649681636,0.2821862967586364,0.8,-4.186683794944934,-60.0001403060998,60.0001403060998
1,1,2,0.09861666666666669,-9.763222778777191,1.918653954227162,0.044000000000000004,0.044000000000000004,0.7975306484310426,-0.7863425718390894,0.06280823841092374,-0.10267595189017584,0.0111880765919532,-0.039867713479252095,0.8000000062494517,0.7930176488471534,0.8,3.98750332380222,-60.0001403060998,60.0001403060998
